STAAD SPACE
START JOB INFORMATION
ENGINEER DATE 26-Mar-25
END JOB INFORMATION
INPUT WIDTH 79
SET NL 30
UNIT FEET KIP
JOINT COORDINATES
1 0 0 0; 2 14.6 0 0; 3 24.6 0 0; 4 37.3 0 0; 5 48.2 0 0; 6 0 0 11.5;
7 14.6 0 11.5; 8 24.6 0 11.5; 9 37.3 0 11.5; 10 48.2 0 11.5; 11 0 0 28;
12 14.6 0 28; 13 24.6 0 28; 14 37.3 0 28; 15 48.2 0 28; 16 0 -4.92126 0;
17 14.6 -4.92126 0; 18 24.6 -4.92126 0; 19 37.3 -4.92126 0; 20 48.2 -4.92126 0;
21 0 -4.92126 11.5; 22 14.6 -4.92126 11.5; 23 24.6 -4.92126 11.5;
24 37.3 -4.92126 11.5; 25 48.2 -4.92126 11.5; 26 0 -4.92126 28;
27 14.6 -4.92126 28; 28 24.6 -4.92126 28; 29 37.3 -4.92126 28;
30 48.2 -4.92126 28; 31 0 9.84252 0; 32 14.6 9.84252 0; 33 24.6 9.84252 0;
34 37.3 9.84252 0; 35 48.2 9.84252 0; 36 0 9.84252 11.5; 37 14.6 9.84252 11.5;
38 24.6 9.84252 11.5; 39 37.3 9.84252 11.5; 40 48.2 9.84252 11.5;
41 0 9.84252 28; 42 14.6 9.84252 28; 43 24.6 9.84252 28; 44 37.3 9.84252 28;
45 48.2 9.84252 28; 46 0 9.84252 32.6; 47 14.6 9.84252 32.6;
48 24.6 9.84252 32.6; 49 37.3 9.84252 32.6; 50 48.2 9.84252 32.6;
51 56 9.84252 0; 52 56 9.84252 11.5; 53 56 9.84252 28; 54 56 9.84252 32.6;
79 24.6 0 20; 80 37.3 0 20; 81 48.2 0 20; 82 24.6 -4.92126 20;
83 37.3 -4.92126 20; 84 48.2 -4.92126 20; 85 24.6 9.84252 20;
86 37.3 9.84252 20; 87 48.2 9.84252 20; 88 56 9.84252 20; 93 37.3 4.92126 28;
94 24.6 4.92126 28; 95 0 19.685 0; 96 14.6 19.685 0; 97 24.6 19.685 0;
98 37.3 19.685 0; 99 48.2 19.685 0; 100 0 19.685 11.5; 101 14.6 19.685 11.5;
102 24.6 19.685 11.5; 103 37.3 19.685 11.5; 104 48.2 19.685 11.5;
# ... 6 like lines cut
MEMBER INCIDENCES
1 1 2; 2 2 3; 3 3 4; 4 4 5; 5 5 10; 6 10 81; 7 15 14; 8 14 13; 9 13 12;
10 12 11; 11 11 6; 12 6 1; 13 2 7; 14 7 12; 15 3 8; 16 8 79; 17 4 9; 18 9 80;
19 6 7; 20 7 8; 21 8 9; 22 9 10; 23 1 16; 24 2 17; 25 3 18; 26 4 19; 27 5 20;
28 6 21; 29 7 22; 30 8 23; 31 9 24; 32 10 25; 33 11 26; 34 12 27; 35 13 28;
36 14 29; 37 15 30; 38 1 31; 39 2 32; 40 3 33; 41 4 34; 42 5 35; 43 6 36;
44 7 37; 45 8 38; 46 9 39; 47 10 40; 48 11 41; 49 12 42; 50 13 94; 51 14 93;
52 15 45; 53 31 32; 54 32 33; 55 33 34; 56 34 35; 57 35 40; 58 40 87; 59 45 44;
60 44 43; 61 43 42; 62 42 41; 63 41 36; 64 36 31; 65 32 37; 66 37 42; 67 33 38;
68 38 85; 69 34 39; 70 39 86; 71 36 37; 72 37 38; 73 38 39; 74 39 40; 75 35 51;
76 40 52; 77 45 53; 78 45 50; 79 44 49; 80 43 48; 81 42 47; 82 41 46;
140 46 47; 141 47 48; 142 48 49; 143 49 50; 144 50 54; 145 54 53; 146 53 88;
147 52 51; 148 79 13; 149 80 14; 150 81 15; 151 85 43; 152 86 44; 153 87 45;
154 88 52; 159 79 80; 160 80 81; 161 82 79; 162 83 80; 163 84 81; 164 85 86;
165 86 87; 168 87 81; 175 87 88; 176 93 44; 177 94 43; 178 93 94; 179 31 95;
180 32 96; 181 33 97; 182 34 98; 183 35 99; 184 36 100; 185 37 101; 186 38 102;
187 39 103; 188 40 104; 189 41 105; 190 42 106; 191 43 124; 192 44 123;
193 45 109; 194 95 96; 195 96 97; 196 97 98; 197 98 99; 198 99 104;
199 104 121; 200 109 108; 201 108 107; 202 107 106; 203 106 105; 204 105 100;
205 100 95; 206 96 101; 207 101 106; 208 97 102; 209 102 119; 210 98 103;
211 103 120; 212 100 101; 213 101 102; 214 102 103; 215 103 104; 216 99 115;
# ... 5 like lines cut
ELEMENT INCIDENCES SHELL
84 31 51 54 46; 243 95 115 118 110;
UNIT METER KN
ELEMENT PROPERTY
84 243 THICKNESS 0.15
DEFINE MATERIAL START
ISOTROPIC CONCRETE
E 2.17184e+07
POISSON 0.17
DENSITY 23.5615
ALPHA 5.5e-06
DAMP 0.05
G 9.28137e+06
TYPE CONCRETE
STRENGTH FCU 27578.9
END DEFINE MATERIAL
MEMBER PROPERTY
1 TO 22 148 TO 150 159 160 PRIS YD 0.23 ZD 0.3
53 TO 82 140 TO 147 151 TO 154 164 165 175 178 194 TO 237 239 -
242 PRIS YD 0.45 ZD 0.45
23 TO 52 161 TO 163 168 176 177 179 TO 193 238 240 241 244 TO 246 -
247 PRIS YD 0.45 ZD 0.6
CONSTANTS
MATERIAL CONCRETE ALL
SUPPORTS
16 TO 30 82 TO 84 FIXED
DEFINE 1893 LOAD
ZONE 0.16 RF 5 I 1.5 SS 2 ST 1 DM 0.05 PX 0.57 PZ 0.57 DT 1.5
MEMBER WEIGHT
53 TO 56 63 64 75 82 140 TO 147 154 UNI 14 0 0
194 TO 197 204 205 216 223 TO 231 235 UNI 3 0 0
159 164 178 236 242 UNI 20 0 0
FLOOR WEIGHT
YRANGE 3 6 FLOAD 4.75
YRANGE 0 6 FLOAD 2.5
DEFINE WIND LOAD
TYPE 1 WIND 1
<! STAAD PRO GENERATED DATA DO NOT MODIFY !!!
CUSTOM:PARAMS 
!> END GENERATED DATA BLOCK
INT 1.5 HEIG  6
EXP 1 JOINT 1 TO 54 79 TO 88 93 TO 124
LOAD 1 LOADTYPE Seismic-H  TITLE EQ+X
1893 LOAD X 1
PERFORM ANALYSIS
CHANGE
LOAD 2 LOADTYPE Seismic-H  TITLE EQ-X
1893 LOAD X -1
PERFORM ANALYSIS
CHANGE
LOAD 3 LOADTYPE Seismic-H  TITLE EQ+Z
1893 LOAD Z 1
PERFORM ANALYSIS
CHANGE
LOAD 4 LOADTYPE Seismic-H  TITLE EQ-Z
1893 LOAD Z -1
PERFORM ANALYSIS
CHANGE
LOAD 5 LOADTYPE Wind  TITLE WL+X
WIND LOAD X 1 TYPE 1
LOAD 6 LOADTYPE Wind  TITLE WL-X
WIND LOAD X -1 TYPE 1
LOAD 7 LOADTYPE Wind  TITLE WL+Z
WIND LOAD Z 1 TYPE 1
LOAD 8 LOADTYPE Wind  TITLE WL-Z
WIND LOAD Z -1 TYPE 1
LOAD 9 LOADTYPE Dead  TITLE SELF WEIGHT
SELFWEIGHT Y -1 
LOAD 10 LOADTYPE Dead  TITLE EWL
MEMBER LOAD
53 TO 56 63 64 75 82 140 TO 147 154 UNI GY -14
LOAD 11 LOADTYPE Dead  TITLE PWL
MEMBER LOAD
194 TO 197 204 205 216 223 TO 231 235 UNI GY -3
LOAD 12 LOADTYPE Dead  TITLE STAIR CASE LOAD
MEMBER LOAD
159 164 178 236 242 UNI GY -20
LOAD 13 LOADTYPE Roof Live  TITLE FL+FF
FLOOR LOAD
YRANGE 3 6 FLOAD 4.75 GY
LOAD 14 LOADTYPE Live  TITLE LL
FLOOR LOAD
YRANGE 0 6 FLOAD -2.5 GY
LOAD COMB 15 SERVICEABILITY
9 1.0 10 1.0 11 1.0 12 1.0 13 1.0 14 1.0 
LOAD COMB 16 1DL+0.8(LL+WL)
9 1.0 10 1.0 11 1.0 12 1.0 13 1.0 5 0.8 6 0.8 7 0.8 8 0.8 14 0.8 
LOAD COMB 17 1DL+0.8(LL+EQ)
9 1.0 10 1.0 11 1.0 12 1.0 13 1.0 14 0.8 1 0.8 2 0.8 3 0.8 4 0.8 
LOAD COMB 18 COLLAPSE
14 1.5 13 1.5 12 1.5 11 1.5 10 1.5 9 1.5 
LOAD COMB 19 1.5(DL+WL)
9 1.5 10 1.5 11 1.5 12 1.5 13 1.5 5 1.5 6 1.5 7 1.5 8 1.5 
LOAD COMB 20 1.5(DL+EQ)
9 1.5 10 1.5 11 1.5 12 1.5 13 1.5 1 1.5 2 1.5 3 1.5 4 1.5 
LOAD COMB 21 1.2(DL+LL+WL)
5 1.2 6 1.2 7 1.2 8 1.2 9 1.2 10 1.2 11 1.2 12 1.2 13 1.2 14 1.2 
LOAD COMB 22 1.2(DL+LL+EQ)
9 1.2 10 1.2 11 1.2 12 1.2 13 1.2 14 1.2 1 1.2 2 1.2 3 1.2 4 1.2 
PERFORM ANALYSIS
START CONCRETE DESIGN
CODE INDIAN
FC 25000 MEMB 1 TO 82 84 140 TO 154 159 TO 165 168 175 TO 243
FYMAIN 500000 MEMB 1 TO 82 84 140 TO 154 159 TO 165 168 175 TO 243
FYSEC 500000 MEMB 1 TO 82 140 TO 154 159 TO 165 168 175 TO 242
MAXMAIN 20 MEMB 1 TO 82 140 TO 154 159 TO 165 168 175 TO 242
MAXSEC 8 MEMB 1 TO 82 140 TO 154 159 TO 165 168 175 TO 242
DESIGN BEAM 1 TO 22 53 TO 82 140 TO 154 159 160 164 165 175 178 194 TO 237 -
239 242
DESIGN COLUMN 23 TO 52 161 TO 163 168 176 177 179 TO 193 238 240 241 244 TO 247
DESIGN ELEMENT 84 243
CONCRETE TAKE
END CONCRETE DESIGN
FINISH
